Version 4
SHEET 1 880 680
WIRE 384 160 -16 160
WIRE 384 304 384 240
WIRE -16 432 -16 160
WIRE 384 432 384 384
WIRE 112 512 -16 512
WIRE 384 512 112 512
WIRE 112 560 112 512
FLAG 112 560 0
SYMBOL res 368 144 R0
SYMATTR InstName R1
SYMBOL res 368 288 R0
SYMATTR InstName R2
SYMBOL res 368 416 R0
SYMATTR InstName R3
SYMBOL voltage -16 416 R0
SYMATTR InstName V1
