Version 4
SHEET 1 880 752
WIRE 608 176 416 176
WIRE 416 288 416 176
WIRE -128 336 -192 336
WIRE 416 432 416 368
WIRE 224 512 64 512
WIRE 368 512 304 512
WIRE 608 544 608 176
WIRE -192 560 -192 336
WIRE -192 688 -192 640
WIRE -16 688 -192 688
WIRE 416 688 416 528
WIRE 416 688 -16 688
WIRE 608 688 608 624
WIRE 608 688 416 688
WIRE -16 736 -16 688
FLAG -16 736 0
FLAG 64 512 DIGITAL13
SYMBOL voltage -192 544 R0
WINDOW 0 43 45 Bottom 2
WINDOW 3 41 67 Top 2
SYMATTR InstName V1
SYMATTR Value 5
SYMBOL voltage 608 528 R0
WINDOW 0 41 46 Bottom 2
WINDOW 3 43 67 Top 2
SYMATTR InstName V2
SYMATTR Value 9
SYMBOL res 320 496 R90
WINDOW 0 0 56 VBottom 2
WINDOW 3 32 56 VTop 2
SYMATTR InstName R2
SYMBOL nmos 368 432 R0
SYMATTR InstName M1
SYMBOL Misc/EuropeanResistor 400 272 R0
SYMATTR InstName R3
